data/IEEE300Bus_nk.m
% Case saved by PowerWorld Simulator, version 20, build date October 5, 2017
% Case Information Header = 2 lines
%  13/05/91 CYME INTERNATIONAL    100.0 1991 S
%  IEEE 300-BUS TEST SYSTEM
function mpc = IEEE300Bus
mpc.version = '2';
mpc.baseMVA =  100.00;

%% bus data 
mpc.bus = [
1	1	90.00	49.00	0.00	0.00	1	1.0281000	7.113200	115.00	1	1.100	0.900
2	1	56.00	15.00	0.00	0.00	1	1.0350400	8.864200	115.00	1	1.100	0.900
3	1	20.00	0.00	0.00	0.00	1	0.9965100	7.805500	230.00	1	1.100	0.900
4	1	0.00	0.00	0.00	0.00	1	1.0301400	5.796200	345.00	1	1.100	0.900
5	1	353.00	130.00	0.00	0.00	1	1.0187700	5.846300	115.00	1	1.100	0.900
6	1	120.00	41.00	0.00	0.00	1	1.0308700	8.125900	115.00	1	1.100	0.900
7	1	0.00	0.00	0.00	0.00	1	0.9928800	7.371500	230.00	1	1.100	0.900
8	1	58.00	14.00	0.00	0.00	1	1.0148100	3.466600	115.00	1	1.100	0.900
9	1	96.00	43.00	0.00	0.00	1	1.0030900	3.997000	115.00	1	1.100	0.900
10	1	148.00	33.00	0.00	0.00	1	1.0200900	2.495800	230.00	1	1.100	0.900
11	1	83.00	21.00	0.00	0.00	1	1.0054100	3.590500	115.00	1	1.100	0.900
12	1	0.00	0.00	0.00	0.00	1	0.9969100	6.379900	230.00	1	1.100	0.900
13	1	58.00	10.00	0.00	0.00	1	0.9973300	0.577400	115.00	1	1.100	0.900
14	1	160.00	60.00	0.00	0.00	1	0.9984000	-3.881900	115.00	1	1.100	0.900
15	1	126.70	23.00	0.00	0.00	1	1.0337900	-7.784300	115.00	1	1.100	0.900
16	1	0.00	0.00	0.00	0.00	1	1.0310400	-1.860900	345.00	1	1.100	0.900
17	1	561.00	220.00	0.00	0.00	1	1.0644100	-12.311800	115.00	1	1.100	0.900
19	1	0.00	0.00	0.00	0.00	1	0.9813600	2.191700	230.00	1	1.100	0.900
20	1	595.00	120.00	0.00	0.00	1	1.0005400	-1.327200	115.00	1	1.100	0.900
21	1	77.00	1.00	0.00	0.00	1	0.9747000	2.759000	230.00	1	1.100	0.900
22	1	81.00	23.00	0.00	0.00	1	0.9958800	-0.840400	115.00	1	1.100	0.900
23	1	21.00	7.00	0.00	0.00	1	1.0499700	5.072200	115.00	1	1.100	0.900
24	1	0.00	0.00	0.00	0.00	1	1.0054100	7.157700	230.00	1	1.100	0.900
25	1	45.00	12.00	0.00	0.00	1	1.0231900	2.573000	115.00	1	1.100	0.900
26	1	28.00	9.00	0.00	0.00	1	0.9983500	-0.601500	115.00	1	1.100	0.900
27	1	69.00	13.00	0.00	0.00	1	0.9747000	-3.764700	115.00	1	1.100	0.900
33	1	55.00	6.00	0.00	0.00	1	1.0255800	-11.575300	115.00	1	1.100	0.900
34	1	0.00	0.00	0.00	0.00	1	1.0425000	-7.488500	345.00	1	1.100	0.900
35	1	0.00	0.00	0.00	0.00	1	0.9896700	-25.486000	115.00	1	1.100	0.900
36	1	0.00	0.00	0.00	0.00	1	1.0124800	-22.412300	230.00	1	1.100	0.900
37	1	85.00	32.00	0.00	0.00	1	1.0206300	-10.738000	115.00	1	1.100	0.900
38	1	155.00	18.00	0.00	0.00	1	1.0214200	-12.119700	115.00	1	1.100	0.900
39	1	0.00	0.00	0.00	0.00	1	1.0544699	-5.364400	345.00	1	1.100	0.900
40	1	46.00	-21.00	0.00	0.00	1	1.0225300	-12.308600	115.00	1	1.100	0.900
41	1	86.00	0.00	0.00	0.00	1	1.0301501	-10.002200	115.00	1	1.100	0.900
42	1	0.00	0.00	0.00	0.00	1	1.0460100	-6.995800	345.00	1	1.100	0.900
43	1	39.00	9.00	0.00	0.00	1	1.0040100	-16.553400	115.00	1	1.100	0.900
44	1	195.00	29.00	0.00	0.00	1	1.0142699	-17.376900	115.00	1	1.100	0.900
45	1	0.00	0.00	0.00	0.00	1	1.0278800	-14.714300	230.00	1	1.100	0.900
46	1	0.00	0.00	0.00	0.00	1	1.0375700	-11.506100	345.00	1	1.100	0.900
47	1	58.00	11.80	0.00	0.00	1	0.9882400	-22.968300	115.00	1	1.100	0.900
48	1	41.00	19.00	0.00	0.00	1	1.0030200	-15.584200	115.00	1	1.100	0.900
49	1	92.00	26.00	0.00	0.00	1	1.0476700	-2.481500	115.00	1	1.100	0.900
51	1	-5.00	5.00	0.00	0.00	1	1.0260000	-7.810000	115.00	1	1.100	0.900
52	1	61.00	28.00	0.00	0.00	1	0.9993300	-11.801500	115.00	1	1.100	0.900
53	1	69.00	3.00	0.00	0.00	1	0.9995700	-17.425600	115.00	1	1.100	0.900
54	1	10.00	1.00	0.00	0.00	1	1.0090500	-16.195800	115.00	1	1.100	0.900
55	1	22.00	10.00	0.00	0.00	1	1.0172300	-12.364900	115.00	1	1.100	0.900
57	1	98.00	20.00	0.00	0.00	1	1.0340900	-8.928500	115.00	1	1.100	0.900
58	1	14.00	1.00	0.00	0.00	1	0.9916800	-7.265800	115.00	1	1.100	0.900
59	1	218.00	106.00	0.00	0.00	1	0.9787700	-6.668500	115.00	1	1.100	0.900
60	1	0.00	0.00	0.00	0.00	1	1.0304900	-10.188500	230.00	1	1.100	0.900
61	1	227.00	110.00	0.00	0.00	1	0.9907100	-4.900500	115.00	1	1.100	0.900
62	1	0.00	0.00	0.00	0.00	1	1.0175101	-2.741300	230.00	1	1.100	0.900
63	1	70.00	30.00	0.00	0.00	1	0.9582700	-19.090700	115.00	1	1.100	0.900
64	1	0.00	0.00	0.00	0.00	1	0.9485700	-14.478000	230.00	1	1.100	0.900
69	1	0.00	0.00	0.00	0.00	1	1.0064501	-26.124900	115.00	1	1.100	0.900
70	1	56.00	20.00	0.00	0.00	1	1.0218800	-34.871800	115.00	1	1.100	0.900
71	1	116.00	38.00	0.00	150.00	1	1.0465200	-30.258100	115.00	1	1.100	0.900
72	1	57.00	19.00	0.00	0.00	1	0.9947500	-27.329400	115.00	1	1.100	0.900
73	1	224.00	71.00	0.00	0.00	1	0.9972200	-25.593200	115.00	1	1.100	0.900
74	1	0.00	0.00	0.00	0.00	1	1.0099200	-21.895700	230.00	1	1.100	0.900
76	1	208.00	107.00	0.00	0.00	1	0.9760300	-26.242400	115.00	1	1.100	0.900
77	1	74.00	28.00	0.00	0.00	1	0.9967200	-24.715100	115.00	1	1.100	0.900
78	1	0.00	0.00	0.00	0.00	1	1.0021100	-23.841300	115.00	1	1.100	0.900
79	1	48.00	14.00	0.00	0.00	1	0.9986100	-24.813800	115.00	1	1.100	0.900
80	1	28.00	7.00	0.00	0.00	1	0.9974900	-24.723800	115.00	1	1.100	0.900
81	1	0.00	0.00	0.00	0.00	1	1.0396399	-18.693000	345.00	1	1.100	0.900
84	1	37.00	13.00	0.00	0.00	1	1.0248899	-17.037300	115.00	1	1.100	0.900
85	1	0.00	0.00	0.00	0.00	1	0.9870300	-16.938600	230.00	1	1.100	0.900
86	1	0.00	0.00	0.00	0.00	1	0.9905600	-13.395100	230.00	1	1.100	0.900
87	1	0.00	0.00	0.00	0.00	1	0.9913700	-6.840600	230.00	1	1.100	0.900
88	1	0.00	0.00	0.00	0.00	1	1.0248500	-20.786700	230.00	1	1.100	0.900
89	1	44.20	0.00	0.00	0.00	1	1.0316300	-10.430500	115.00	1	1.100	0.900
90	1	66.00	0.00	0.00	0.00	1	1.0274100	-10.630200	115.00	1	1.100	0.900
91	1	17.40	0.00	0.00	0.00	1	1.0519500	-8.649500	115.00	1	1.100	0.900
92	1	15.80	0.00	0.00	0.00	1	1.0519700	-5.562800	115.00	1	1.100	0.900
94	1	60.30	0.00	0.00	0.00	1	0.9926500	-8.529400	115.00	1	1.100	0.900
97	1	39.90	0.00	0.00	0.00	1	1.0182000	-12.488600	115.00	1	1.100	0.900
98	1	66.70	0.00	0.00	0.00	1	1.0000100	-13.846800	115.00	1	1.100	0.900
99	1	83.50	0.00	0.00	0.00	1	0.9894800	-19.566200	115.00	1	1.100	0.900
100	1	0.00	0.00	0.00	0.00	1	1.0059700	-13.688300	115.00	1	1.100	0.900
102	1	77.80	0.00	0.00	0.00	1	1.0006800	-14.467400	115.00	1	1.100	0.900
103	1	32.00	0.00	0.00	0.00	1	1.0289201	-11.400300	115.00	1	1.100	0.900
104	1	8.60	0.00	0.00	0.00	1	0.9957100	-16.580400	115.00	1	1.100	0.900
105	1	49.60	0.00	0.00	0.00	1	1.0226800	-12.307100	115.00	1	1.100	0.900
107	1	4.60	0.00	0.00	0.00	1	1.0102100	-15.433300	115.00	1	1.100	0.900
108	1	112.10	0.00	0.00	0.00	1	0.9899800	-19.550100	115.00	1	1.100	0.900
109	1	30.70	0.00	0.00	0.00	1	0.9801300	-25.471100	115.00	1	1.100	0.900
110	1	63.00	0.00	0.00	0.00	1	0.9762200	-24.070900	115.00	1	1.100	0.900
112	1	19.60	0.00	0.00	0.00	1	0.9813000	-28.065200	115.00	1	1.100	0.900
113	1	26.20	0.00	0.00	0.00	1	0.9790700	-25.038100	115.00	1	1.100	0.900
114	1	18.20	0.00	0.00	0.00	1	0.9839900	-27.970100	115.00	1	1.100	0.900
115	1	0.00	0.00	0.00	0.00	2	0.9533000	10.840500	115.00	2	1.100	0.900
116	1	0.00	0.00	0.00	0.00	2	1.0398999	17.473600	115.00	2	1.100	0.900
117	1	0.00	0.00	0.00	500.00	2	0.9715900	22.267800	115.00	2	1.100	0.900
118	1	14.10	650.00	0.00	0.00	2	0.9633900	23.271800	115.00	2	1.100	0.900
119	1	0.00	0.00	0.00	0.00	2	1.0426600	37.499900	115.00	2	1.100	0.900
120	1	0.00	0.00	0.00	150.00	2	1.0474200	34.861200	115.00	2	1.100	0.900
121	1	535.00	55.00	0.00	0.00	2	0.9429200	14.134400	115.00	2	1.100	0.900
122	1	229.10	11.80	0.00	0.00	2	0.9556200	8.439500	115.00	2	1.100	0.900
123	1	78.00	1.40	0.00	0.00	2	0.9847600	4.137700	115.00	2	1.100	0.900
124	1	276.40	59.30	0.00	0.00	2	1.0231800	14.414400	115.00	2	1.100	0.900
125	1	514.80	82.70	0.00	0.00	2	1.0075800	-5.271900	115.00	2	1.100	0.900
126	1	57.90	5.10	0.00	200.00	2	1.0056700	-1.172100	115.00	2	1.100	0.900
127	1	380.80	37.00	0.00	0.00	2	1.0056100	-6.166000	230.00	2	1.100	0.900
128	1	0.00	0.00	0.00	0.00	2	1.0049300	-4.227200	230.00	2	1.100	0.900
129	1	0.00	0.00	0.00	0.00	2	1.0049500	-3.427700	230.00	2	1.100	0.900
130	1	0.00	0.00	0.00	0.00	2	1.0187200	6.986500	230.00	2	1.100	0.900
131	1	0.00	0.00	0.00	0.00	2	0.9857800	7.306300	230.00	2	1.100	0.900
132	1	0.00	0.00	0.00	0.00	2	1.0052201	5.249900	230.00	2	1.100	0.900
133	1	0.00	0.00	0.00	0.00	2	1.0033100	-6.393800	230.00	2	1.100	0.900
134	1	0.00	0.00	0.00	0.00	2	1.0285400	-5.340400	230.00	2	1.100	0.900
135	1	169.20	41.60	0.00	0.00	2	1.0286400	-5.480600	230.00	2	1.100	0.900
136	1	55.20	18.20	0.00	0.00	2	1.0552800	-0.256300	230.00	2	1.100	0.900
137	1	273.60	99.80	0.00	0.00	2	1.0452300	-6.381600	230.00	2	1.100	0.900
138	1	826.70	135.20	0.00	0.00	2	1.0530200	-15.799600	230.00	2	1.100	0.900
139	1	595.00	83.30	0.00	0.00	2	1.0110101	-8.282200	115.00	2	1.100	0.900
140	1	387.70	114.70	0.00	0.00	2	1.0417399	-8.168200	230.00	2	1.100	0.900
141	1	145.00	58.00	0.00	0.00	2	1.0509300	-4.458600	230.00	2	1.100	0.900
142	1	56.50	24.50	0.00	-8.70	2	1.0154700	-6.621500	230.00	2	1.100	0.900
143	1	89.50	35.50	0.00	0.00	2	1.0434999	0.586500	230.00	2	1.100	0.900
144	1	0.00	0.00	0.00	0.00	2	1.0173100	-2.479400	230.00	2	1.100	0.900
145	1	24.00	14.00	0.00	0.00	2	1.0118300	-3.894800	230.00	2	1.100	0.900
146	1	0.00	0.00	0.00	0.00	2	1.0527700	0.249600	230.00	2	1.100	0.900
147	1	0.00	0.00	0.00	0.00	2	1.0528500	4.209100	230.00	2	1.100	0.900
148	1	63.00	25.00	0.00	120.00	2	1.0981500	-3.343500	115.00	2	1.100	0.900
149	1	0.00	0.00	0.00	0.00	2	1.0734500	1.679400	230.00	2	1.100	0.900
150	1	0.00	0.00	0.00	0.00	2	0.9865600	7.588700	230.00	2	1.100	0.900
151	1	0.00	0.00	0.00	0.00	2	1.0030000	5.685700	230.00	2	1.100	0.900
152	1	17.00	9.00	0.00	0.00	2	1.0609900	6.918600	230.00	2	1.100	0.900
153	1	0.00	0.00	0.00	0.00	2	1.0470901	7.111500	230.00	2	1.100	0.900
154	1	70.00	5.00	0.00	84.50	2	1.0710800	-6.934400	115.00	2	1.100	0.900
155	1	200.00	50.00	0.00	0.00	2	1.0187800	2.856100	230.00	2	1.100	0.900
156	1	75.00	50.00	0.00	0.00	2	0.9648500	1.317900	115.00	2	1.100	0.900
157	1	123.50	-24.30	0.00	0.00	2	0.9599400	9.973500	230.00	2	1.100	0.900
158	1	0.00	0.00	0.00	0.00	2	0.9797900	9.563600	230.00	2	1.100	0.900
159	1	33.00	16.50	0.00	0.00	2	0.9558700	13.791200	230.00	2	1.100	0.900
160	1	0.00	0.00	0.00	0.00	2	0.9938700	12.190600	230.00	2	1.100	0.900
161	1	35.00	15.00	0.00	0.00	2	1.0386900	5.318200	230.00	2	1.100	0.900
162	1	85.00	24.00	0.00	0.00	2	0.9915100	14.405500	230.00	2	1.100	0.900
163	1	0.00	0.40	0.00	-5.70	2	1.0382000	-1.678900	230.00	2	1.100	0.900
164	1	0.00	0.00	0.00	-215.30	2	0.9835400	5.560300	230.00	2	1.100	0.900
165	1	0.00	0.00	0.00	0.00	2	0.9999700	22.217600	230.00	2	1.100	0.900
166	1	0.00	0.00	0.00	-103.00	2	0.9970500	26.131100	230.00	2	1.100	0.900
167	1	299.90	95.70	0.00	0.00	2	0.9722900	-5.912200	230.00	2	1.100	0.900
168	1	0.00	0.00	0.00	0.00	2	1.0049700	-4.252000	230.00	2	1.100	0.900
169	1	0.00	0.00	0.00	0.00	2	0.9892800	-5.783400	230.00	2	1.100	0.900
170	1	481.80	100.00	0.00	0.00	2	0.9228500	1.946800	115.00	2	1.100	0.900
171	1	763.60	291.10	0.00	0.00	2	0.9827500	-10.861800	115.00	2	1.100	0.900
172	1	26.50	0.00	0.00	0.00	2	1.0247000	-10.723900	115.00	2	1.100	0.900
173	1	163.50	43.00	0.00	53.00	2	0.9844000	-16.862300	115.00	2	1.100	0.900
174	1	0.00	0.00	0.00	0.00	2	1.0623300	-7.152100	115.00	2	1.100	0.900
175	1	176.00	83.00	0.00	0.00	2	0.9763600	-11.011400	115.00	2	1.100	0.900
176	1	5.00	4.00	0.00	0.00	2	1.0521600	1.025000	115.00	2	1.100	0.900
177	1	28.00	12.00	0.00	0.00	2	1.0076801	-2.909500	115.00	2	1.100	0.900
178	1	427.40	173.60	0.00	0.00	2	0.9500300	-10.056200	115.00	2	1.100	0.900
179	1	74.00	29.00	0.00	45.00	2	0.9864000	-12.800400	115.00	2	1.100	0.900
180	1	69.50	49.30	0.00	0.00	2	0.9855300	-6.728300	115.00	2	1.100	0.900
181	1	73.40	0.00	0.00	0.00	2	1.0484400	-6.893700	230.00	2	1.100	0.900
182	1	240.70	89.00	0.00	0.00	2	1.0435801	-8.916200	230.00	2	1.100	0.900
183	1	40.00	4.00	0.00	0.00	2	0.9921700	3.501100	115.00	2	1.100	0.900
184	1	136.80	16.60	0.00	0.00	2	1.0411201	-4.130500	230.00	2	1.100	0.900
185	1	0.00	0.00	0.00	0.00	2	1.0521801	-1.607900	230.00	2	1.100	0.900
186	1	59.80	24.30	0.00	0.00	2	1.0647100	-3.128800	230.00	2	1.100	0.900
187	1	59.80	24.30	0.00	0.00	2	1.0646400	-4.145300	230.00	2	1.100	0.900
188	1	182.60	43.60	0.00	0.00	2	1.0504800	-6.235600	230.00	2	1.100	0.900
189	1	7.00	2.00	0.00	0.00	3	1.0069000	-25.565300	66.00	3	1.100	0.900
190	1	0.00	0.00	0.00	-150.00	3	1.0551800	-20.373600	345.00	3	1.100	0.900
191	1	489.00	53.00	0.00	0.00	3	1.0427800	12.391800	230.00	3	1.100	0.900
192	1	800.00	72.00	0.00	0.00	3	0.9391500	-11.011100	230.00	3	1.100	0.900
193	1	0.00	0.00	0.00	0.00	3	1.0099500	-25.671700	66.00	3	1.100	0.900
194	1	0.00	0.00	0.00	0.00	3	1.0519201	-18.997200	345.00	3	1.100	0.900
195	1	0.00	0.00	0.00	0.00	3	1.0393200	-20.561500	345.00	3	1.100	0.900
196	1	10.00	3.00	0.00	0.00	3	0.9795000	-25.236100	115.00	3	1.100	0.900
197	1	43.00	14.00	0.00	0.00	3	0.9965700	-23.568000	115.00	3	1.100	0.900
198	1	64.00	21.00	0.00	0.00	3	1.0149300	-20.540200	115.00	3	1.100	0.900
199	1	35.00	12.00	0.00	0.00	3	0.9577500	-25.909500	115.00	3	1.100	0.900
200	1	27.00	12.00	0.00	0.00	3	0.9595400	-25.771700	115.00	3	1.100	0.900
201	1	41.00	14.00	0.00	50.00	1	1.0486600	-27.989400	66.00	1	1.100	0.900
202	1	38.00	13.00	0.00	0.00	3	0.9867500	-23.816800	66.00	3	1.100	0.900
203	1	42.00	14.00	0.00	0.00	3	1.0060101	-22.217200	115.00	3	1.100	0.900
204	1	72.00	24.00	0.00	-1.20	3	1.0085300	-25.394100	66.00	3	1.100	0.900
205	1	0.00	-5.00	0.00	0.00	3	1.0111099	-25.687700	66.00	3	1.100	0.900
206	1	12.00	2.00	0.00	0.00	3	1.0143501	-26.859400	66.00	3	1.100	0.900
207	1	-21.00	-14.20	0.00	0.00	1	1.0264699	-26.822000	66.00	1	1.100	0.900
208	1	7.00	2.00	0.00	0.00	3	1.0069500	-25.906400	66.00	3	1.100	0.900
209	1	38.00	13.00	0.00	0.00	3	1.0066800	-25.386500	66.00	3	1.100	0.900
210	1	0.00	0.00	0.00	0.00	3	0.9839200	-24.119100	115.00	3	1.100	0.900
211	1	96.00	7.00	0.00	0.00	3	1.0076700	-23.057200	115.00	3	1.100	0.900
212	1	0.00	0.00	0.00	0.00	3	1.0181299	-22.254800	138.00	3	1.100	0.900
213	1	0.00	0.00	0.00	0.00	3	1.0099500	-11.427200	16.50	3	1.100	0.900
214	1	22.00	16.00	0.00	0.00	3	0.9921800	-17.285700	138.00	3	1.100	0.900
215	1	47.00	26.00	0.00	0.00	3	0.9877300	-19.983300	138.00	3	1.100	0.900
216	1	176.00	105.00	0.00	0.00	3	0.9760500	-22.277300	138.00	3	1.100	0.900
217	1	100.00	75.00	0.00	0.00	3	1.0219899	-21.954200	138.00	3	1.100	0.900
218	1	131.00	96.00	0.00	-1.00	3	1.0078501	-22.384000	138.00	3	1.100	0.900
219	1	0.00	0.00	0.00	0.00	3	1.0559900	-20.908000	345.00	3	1.100	0.900
220	1	285.00	100.00	0.00	0.00	3	1.0079600	-21.480400	138.00	3	1.100	0.900
221	1	171.00	70.00	0.00	0.00	3	0.9998400	-22.241300	138.00	3	1.100	0.900
...
];

%% generator data 
mpc.gen = [
10000	-5.00	10.00	10.00	-10.00	1.0153	25.00	1	9999.00	-9999.00	0.00	0.00	0.00	0.00	0.00	0.00	0	0	0	0	9999.0000
10001	-5.00	20.00	20.00	-20.00	1.0205	25.00	1	9999.00	-9999.00	0.00	0.00	0.00	0.00	0.00	0.00	0	0	0	0	9999.0000
10002	-10.00	20.00	20.00	-20.00	1.0010	27.00	1	9999.00	-9999.00	0.00	0.00	0.00	0.00	0.00	0.00	0	0	0	0	9999.0000
10003	0.00	23.91	25.00	-25.00	0.9583	30.00	1	9999.00	-9999.00	0.00	0.00	0.00	0.00	0.00	0.00	0	0	0	0	9999.0000
10004	0.00	12.00	35.00	12.00	0.9632	42.00	1	9999.00	-9999.00	0.00	0.00	0.00	0.00	0.00	0.00	0	0	0	0	9999.0000
10005	375.00	98.11	240.00	-240.00	1.0250	835.00	1	9999.00	-9999.00	0.00	0.00	0.00	0.00	0.00	0.00	0	0	0	0	9999.0000
10006	155.00	44.15	96.00	-11.00	1.0520	270.00	1	9999.00	-9999.00	0.00	0.00	0.00	0.00	0.00	0.00	0	0	0	0	9999.0000
10007	290.00	30.23	153.00	-153.00	1.0520	410.00	1	9999.00	-9999.00	0.00	0.00	0.00	0.00	0.00	0.00	0	0	0	0	9999.0000
10008	68.00	-10.63	56.00	-30.00	1.0000	125.00	1	9999.00	-9999.00	0.00	0.00	0.00	0.00	0.00	0.00	0	0	0	0	9999.0000
10009	117.00	17.17	77.00	-24.00	0.9900	270.00	1	9999.00	-9999.00	0.00	0.00	0.00	0.00	0.00	0.00	0	0	0	0	9999.0000
10010	1930.00	794.66	1500.00	-500.00	1.0435	2845.00	1	9999.00	-9999.00	0.00	0.00	0.00	0.00	0.00	0.00	0	0	0	0	9999.0000
10011	240.00	120.00	120.00	-60.00	1.0233	410.00	1	9999.00	-9999.00	0.00	0.00	0.00	0.00	0.00	0.00	0	0	0	0	9999.0000
10012	0.00	200.00	200.00	-25.00	1.0103	240.00	1	9999.00	-9999.00	0.00	0.00	0.00	0.00	0.00	0.00	0	0	0	0	9999.0000
10013	-925.03	350.00	350.00	-125.00	1.0550	1187.00	1	9999.00	-9999.00	0.00	0.00	0.00	0.00	0.00	0.00	0	0	0	0	9999.0000
10014	281.00	66.63	75.00	-50.00	1.0510	410.00	1	9999.00	-9999.00	0.00	0.00	0.00	0.00	0.00	0.00	0	0	0	0	9999.0000
10015	696.00	-3.17	300.00	-100.00	1.0435	911.00	1	9999.00	-9999.00	0.00	0.00	0.00	0.00	0.00	0.00	0	0	0	0	9999.0000
10016	84.00	28.51	35.00	-15.00	1.0528	125.00	1	9999.00	-9999.00	0.00	0.00	0.00	0.00	0.00	0.00	0	0	0	0	9999.0000
10017	217.00	-48.91	100.00	-50.00	1.0528	410.00	1	9999.00	-9999.00	0.00	0.00	0.00	0.00	0.00	0.00	0	0	0	0	9999.0000
10018	103.00	47.42	50.00	-25.00	1.0735	270.00	1	9999.00	-9999.00	0.00	0.00	0.00	0.00	0.00	0.00	0	0	0	0	9999.0000
10019	372.00	-50.00	175.00	-50.00	1.0535	835.00	1	9999.00	-9999.00	0.00	0.00	0.00	0.00	0.00	0.00	0	0	0	0	9999.0000
10020	216.00	-50.00	90.00	-50.00	1.0435	410.00	1	9999.00	-9999.00	0.00	0.00	0.00	0.00	0.00	0.00	0	0	0	0	9999.0000
10021	0.00	-10.00	15.00	-10.00	0.9630	25.00	1	9999.00	-9999.00	0.00	0.00	0.00	0.00	0.00	0.00	0	0	0	0	9999.0000
10022	205.00	-40.00	90.00	-40.00	1.0000	410.00	1	9999.00	-9999.00	0.00	0.00	0.00	0.00	0.00	0.00	0	0	0	0	9999.0000
10023	0.00	135.82	150.00	-50.00	0.9829	180.00	1	9999.00	-9999.00	0.00	0.00	0.00	0.00	0.00	0.00	0	0	0	0	9999.0000
10024	228.00	39.10	90.00	-45.00	1.0522	410.00	1	9999.00	-9999.00	0.00	0.00	0.00	0.00	0.00	0.00	0	0	0	0	9999.0000
10025	84.00	22.56	35.00	-15.00	1.0077	270.00	1	9999.00	-9999.00	0.00	0.00	0.00	0.00	0.00	0.00	0	0	0	0	9999.0000
10026	200.00	22.38	80.00	-50.00	1.0522	410.00	1	9999.00	-9999.00	0.00	0.00	0.00	0.00	0.00	0.00	0	0	0	0	9999.0000
10027	1200.00	278.79	400.00	-100.00	1.0650	1491.00	1	9999.00	-9999.00	0.00	0.00	0.00	0.00	0.00	0.00	0	0	0	0	9999.0000
10028	1200.00	348.91	400.00	-100.00	1.0650	1517.00	1	9999.00	-9999.00	0.00	0.00	0.00	0.00	0.00	0.00	0	0	0	0	9999.0000
10029	475.00	-76.18	300.00	-300.00	1.0551	835.00	1	9999.00	-9999.00	0.00	0.00	0.00	0.00	0.00	0.00	0	0	0	0	9999.0000
10030	1973.00	685.92	1000.00	-1000.00	1.0435	2510.00	1	9999.00	-9999.00	0.00	0.00	0.00	0.00	0.00	0.00	0	0	0	0	9999.0000
10031	424.00	64.79	260.00	-260.00	1.0150	835.00	1	9999.00	-9999.00	0.00	0.00	0.00	0.00	0.00	0.00	0	0	0	0	9999.0000
10032	272.00	43.20	150.00	-150.00	1.0100	512.00	1	9999.00	-9999.00	0.00	0.00	0.00	0.00	0.00	0.00	0	0	0	0	9999.0000
10033	100.00	37.08	60.00	-60.00	1.0080	270.00	1	9999.00	-9999.00	0.00	0.00	0.00	0.00	0.00	0.00	0	0	0	0	9999.0000
10034	450.00	140.62	320.00	-320.00	1.0000	835.00	1	9999.00	-9999.00	0.00	0.00	0.00	0.00	0.00	0.00	0	0	0	0	9999.0000
10035	250.00	142.45	300.00	-300.00	1.0500	410.00	1	9999.00	-9999.00	0.00	0.00	0.00	0.00	0.00	0.00	0	0	0	0	9999.0000
10036	303.00	252.68	300.00	-300.00	1.0000	512.00	1	9999.00	-9999.00	0.00	0.00	0.00	0.00	0.00	0.00	0	0	0	0	9999.0000
10037	345.00	42.53	250.00	-250.00	1.0400	835.00	1	9999.00	-9999.00	0.00	0.00	0.00	0.00	0.00	0.00	0	0	0	0	9999.0000
10038	300.00	131.89	500.00	-500.00	1.0000	512.00	1	9999.00	-9999.00	0.00	0.00	0.00	0.00	0.00	0.00	0	0	0	0	9999.0000
10039	600.00	299.18	300.00	-300.00	1.0165	911.00	1	9999.00	-9999.00	0.00	0.00	0.00	0.00	0.00	0.00	0	0	0	0	9999.0000
10040	250.00	160.39	200.00	-200.00	1.0100	410.00	1	9999.00	-9999.00	0.00	0.00	0.00	0.00	0.00	0.00	0	0	0	0	9999.0000
10041	550.00	69.32	400.00	-400.00	1.0000	911.00	1	9999.00	-9999.00	0.00	0.00	0.00	0.00	0.00	0.00	0	0	0	0	9999.0000
10042	574.78	-36.66	600.00	-600.00	1.0500	911.00	1	9999.00	-9999.00	0.00	0.00	0.00	0.00	0.00	0.00	0	0	0	0	9999.0000
10043	170.00	48.02	100.00	40.00	0.9930	410.00	1	9999.00	-9999.00	0.00	0.00	0.00	0.00	0.00	0.00	0	0	0	0	9999.0000
10044	84.00	52.04	80.00	40.00	1.0100	270.00	1	9999.00	-9999.00	0.00	0.00	0.00	0.00	0.00	0.00	0	0	0	0	9999.0000
10045	467.00	140.78	210.00	-210.00	1.0507	835.00	1	9999.00	-9999.00	0.00	0.00	0.00	0.00	0.00	0.00	0	0	0	0	9999.0000
10046	623.00	95.24	280.00	-280.00	1.0507	911.00	1	9999.00	-9999.00	0.00	0.00	0.00	0.00	0.00	0.00	0	0	0	0	9999.0000
10047	1210.00	420.00	420.00	-420.00	1.0323	1537.00	1	9999.00	-9999.00	0.00	0.00	0.00	0.00	0.00	0.00	0	0	0	0	9999.0000
10048	234.00	52.86	100.00	-100.00	1.0145	410.00	1	9999.00	-9999.00	0.00	0.00	0.00	0.00	0.00	0.00	0	0	0	0	9999.0000
10049	372.00	201.26	224.00	-224.00	1.0507	835.00	1	9999.00	-9999.00	0.00	0.00	0.00	0.00	0.00	0.00	0	0	0	0	9999.0000
10050	330.00	348.87	350.00	0.00	1.0507	835.00	1	9999.00	-9999.00	0.00	0.00	0.00	0.00	0.00	0.00	0	0	0	0	9999.0000
10051	185.00	6.89	120.00	0.00	1.0507	410.00	1	9999.00	-9999.00	0.00	0.00	0.00	0.00	0.00	0.00	0	0	0	0	9999.0000
10052	410.00	107.32	224.00	-224.00	1.0290	835.00	1	9999.00	-9999.00	0.00	0.00	0.00	0.00	0.00	0.00	0	0	0	0	9999.0000
10053	500.00	150.06	200.00	-200.00	1.0500	835.00	1	9999.00	-9999.00	0.00	0.00	0.00	0.00	0.00	0.00	0	0	0	0	9999.0000
10054	37.00	38.26	42.00	0.00	1.0145	125.00	1	9999.00	-9999.00	0.00	0.00	0.00	0.00	0.00	0.00	0	0	0	0	9999.0000
10055	458.48	37.43	0.00	0.00	1.0507	835.00	1	9999.00	-9999.00	0.00	0.00	0.00	0.00	0.00	0.00	0	0	0	0	9999.0000
10056	45.00	23.87	25.00	0.00	0.9967	125.00	1	9999.00	-9999.00	0.00	0.00	0.00	0.00	0.00	0.00	0	0	0	0	9999.0000
10057	165.00	88.52	90.00	-90.00	1.0212	410.00	1	9999.00	-9999.00	0.00	0.00	0.00	0.00	0.00	0.00	0	0	0	0	9999.0000
10058	400.00	120.00	150.00	-150.00	1.0145	835.00	1	9999.00	-9999.00	0.00	0.00	0.00	0.00	0.00	0.00	0	0	0	0	9999.0000
10059	400.00	144.77	150.00	0.00	1.0017	835.00	1	9999.00	-9999.00	0.00	0.00	0.00	0.00	0.00	0.00	0	0	0	0	9999.0000
10060	116.00	0.00	87.00	0.00	0.9893	270.00	1	9999.00	-9999.00	0.00	0.00	0.00	0.00	0.00	0.00	0	0	0	0	9999.0000
10061	1292.00	326.61	600.00	-100.00	1.0507	1611.00	1	9999.00	-9999.00	0.00	0.00	0.00	0.00	0.00	0.00	0	0	0	0	9999.0000
10062	700.00	286.93	325.00	-125.00	1.0507	911.00	1	9999.00	-9999.00	0.00	0.00	0.00	0.00	0.00	0.00	0	0	0	0	9999.0000
10063	553.00	137.60	300.00	-200.00	1.0145	911.00	1	9999.00	-9999.00	0.00	0.00	0.00	0.00	0.00	0.00	0	0	0	0	9999.0000
10064	-4.20	1.92	2.00	-2.00	0.9945	25.00	1	9999.00	-9999.00	0.00	0.00	0.00	0.00	0.00	0.00	0	0	0	0	9999.0000
10065	-35.81	15.05	17.35	-17.35	1.0000	125.00	1	9999.00	-9999.00	0.00	0.00	0.00	0.00	0.00	0.00	0	0	0	0	9999.0000
10066	-26.48	10.92	12.83	-12.80	1.0000	125.00	1	9999.00	-9999.00	0.00	0.00	0.00	0.00	0.00	0.00	0	0	0	0	9999.0000
10067	50.00	18.83	38.00	-38.00	1.0000	125.00	1	9999.00	-9999.00	0.00	0.00	0.00	0.00	0.00	0.00	0	0	0	0	9999.0000
10068	8.00	3.47	6.00	-6.00	1.0000	25.00	1	9999.00	-9999.00	0.00	0.00	0.00	0.00	0.00	0.00	0	0	0	0	9999.0000
];

%% generator cost data
mpc.gencost = [
2	0	0	4	0	0	1	0
2	0	0	4	0	0	1	0
2	0	0	4	0	0	1	0
2	0	0	4	0	0	1	0
2	0	0	4	0	0	1	0
2	0	0	4	0	0	1	0
2	0	0	4	0	0	1	0
2	0	0	4	0	0	1	0
2	0	0	4	0	0	1	0
2	0	0	4	0	0	1	0
2	0	0	4	0	0	1	0
2	0	0	4	0	0	1	0
2	0	0	4	0	0	1	0
2	0	0	4	0	0	1	0
2	0	0	4	0	0	1	0
2	0	0	4	0	0	1	0
2	0	0	4	0	0	1	0
2	0	0	4	0	0	1	0
2	0	0	4	0	0	1	0
2	0	0	4	0	0	1	0
2	0	0	4	0	0	1	0
2	0	0	4	0	0	1	0
2	0	0	4	0	0	1	0
2	0	0	4	0	0	1	0
2	0	0	4	0	0	1	0
2	0	0	4	0	0	1	0
2	0	0	4	0	0	1	0
2	0	0	4	0	0	1	0
2	0	0	4	0	0	1	0
2	0	0	4	0	0	1	0
2	0	0	4	0	0	1	0
2	0	0	4	0	0	1	0
2	0	0	4	0	0	1	0
2	0	0	4	0	0	1	0
2	0	0	4	0	0	1	0
2	0	0	4	0	0	1	0
2	0	0	4	0	0	1	0
2	0	0	4	0	0	1	0
2	0	0	4	0	0	1	0
2	0	0	4	0	0	1	0
2	0	0	4	0	0	1	0
2	0	0	4	0	0	1	0
2	0	0	4	0	0	1	0
2	0	0	4	0	0	1	0
2	0	0	4	0	0	1	0
2	0	0	4	0	0	1	0
2	0	0	4	0	0	1	0
2	0	0	4	0	0	1	0
2	0	0	4	0	0	1	0
2	0	0	4	0	0	1	0
2	0	0	4	0	0	1	0
2	0	0	4	0	0	1	0
2	0	0	4	0	0	1	0
2	0	0	4	0	0	1	0
2	0	0	4	0	0	1	0
2	0	0	4	0	0	1	0
2	0	0	4	0	0	1	0
2	0	0	4	0	0	1	0
2	0	0	4	0	0	1	0
2	0	0	4	0	0	1	0
2	0	0	4	0	0	1	0
2	0	0	4	0	0	1	0
2	0	0	4	0	0	1	0
2	0	0	4	0	0	1	0
2	0	0	4	0	0	1	0
2	0	0	4	0	0	1	0
2	0	0	4	0	0	1	0
2	0	0	4	0	0	1	0
2	0	0	4	0	0	1	0
];

%% branch data
mpc.branch = [
3	1	0.000000	0.052000	0.00000	508.30	660.79	0.00	0.94700	0.000	1	0.00	0.00	25.14	49.08	-25.14	-47.66
1	5	0.001000	0.006000	0.00000	756.99	984.08	0.00	0.00000	0.000	1	0.00	0.00	402.15	97.11	-400.53	-87.40
7001	1	0.000000	0.019530	0.00000	725.63	943.33	0.00	1.00000	0.000	1	0.00	0.00	467.00	140.51	-467.00	-98.43
3	2	0.000000	0.052000	0.00000	243.48	316.53	0.00	0.95600	0.000	1	0.00	0.00	-38.34	15.06	38.34	-14.24
2	6	0.001000	0.009000	0.00000	294.90	383.38	0.00	0.00000	0.000	1	0.00	0.00	156.27	31.58	-156.03	-29.44
2	8	0.006000	0.027000	0.05400	672.44	874.17	0.00	0.00000	0.000	1	0.00	0.00	368.80	9.95	-361.17	18.69
7002	2	0.001000	0.014600	0.00000	801.39	1041.81	0.00	1.00000	0.000	1	0.00	0.00	623.00	94.86	-619.40	-42.33
3	4	0.000000	0.005000	0.00000	1098.54	1428.11	0.00	0.97100	0.000	1	0.00	0.00	741.35	-66.41	-741.35	92.71
3	7	0.000000	0.003000	0.00000	543.03	705.94	0.00	0.00000	0.000	1	0.00	0.00	249.82	121.52	-249.82	-119.18
3	19	0.008000	0.069000	0.13900	400.15	520.20	0.00	0.00000	0.000	1	0.00	0.00	140.09	5.53	-138.49	-5.39
3	150	0.001000	0.007000	0.00000	706.70	918.71	0.00	0.00000	0.000	1	0.00	0.00	71.92	131.47	-71.70	-129.89
7003	3	0.000000	0.010540	0.00000	1993.52	2591.58	0.00	1.00000	0.000	1	0.00	0.00	1210.01	418.28	-1210.01	-255.92
4	16	0.002000	0.019000	1.12700	1200.04	1560.05	0.00	0.00000	0.000	1	0.00	0.00	741.36	-92.87	-730.99	71.77
7	5	0.000000	0.039000	0.00000	442.61	575.39	0.00	0.94800	0.000	1	0.00	0.00	72.82	77.70	-72.82	-73.67
5	9	0.006000	0.029000	0.01800	193.71	251.82	0.00	0.00000	0.000	1	0.00	0.00	120.34	31.09	-119.45	-28.59
7	6	0.000000	0.039000	0.00000	262.88	341.74	0.00	0.95900	0.000	1	0.00	0.00	-36.03	12.07	36.03	-11.55
7	12	0.001000	0.009000	0.07000	362.29	470.98	0.00	0.00000	0.000	1	0.00	0.00	183.31	-66.63	-182.93	63.13
7	131	0.001000	0.007000	0.01400	614.65	799.04	0.00	0.00000	0.000	1	0.00	0.00	29.69	95.78	-29.59	-96.43
8	11	0.013000	0.059500	0.03300	262.38	341.09	0.00	0.00000	0.000	1	0.00	0.00	-0.20	14.38	0.23	-17.60
8	14	0.013000	0.042000	0.08100	559.22	726.99	0.00	0.00000	0.000	1	0.00	0.00	298.37	-37.06	-287.00	65.60
10000	8	0.000000	0.000110	0.00000	30.00	39.00	0.00	1.00000	0.000	1	0.00	0.00	-4.89	9.23	4.89	-9.23
9	11	0.006000	0.027000	0.01300	162.09	210.72	0.00	0.00000	0.000	1	0.00	0.00	23.45	-14.39	-23.40	13.28
10	11	0.000000	0.089000	0.00000	231.00	300.31	0.00	1.04600	0.000	1	0.00	0.00	-21.05	-32.87	21.05	34.30
12	10	0.000000	0.053000	0.00000	194.69	253.10	0.00	0.98500	0.000	1	0.00	0.00	131.95	-10.80	-131.95	19.87
10001	10	0.000000	0.000110	0.00000	41.52	53.97	0.00	1.00000	0.000	1	0.00	0.00	-4.94	18.55	4.94	-18.55
11	13	0.008000	0.034000	0.01800	480.36	624.46	0.00	0.00000	0.000	1	0.00	0.00	153.13	-8.97	-151.27	15.07
7011	11	0.000000	0.019230	0.00000	290.47	377.62	0.00	1.00000	0.000	1	0.00	0.00	234.00	52.80	-234.00	-42.05
12	21	0.002000	0.015000	0.11800	794.77	1033.20	0.00	0.00000	0.000	1	0.00	0.00	423.00	98.28	-419.18	-81.10
7012	12	0.000000	0.031200	0.00000	649.65	844.54	0.00	1.00000	0.000	1	0.00	0.00	372.00	201.08	-372.00	-150.52
13	20	0.006000	0.034000	0.01600	303.42	394.44	0.00	0.00000	0.000	1	0.00	0.00	93.26	-25.05	-92.70	26.63
14	15	0.014000	0.042000	0.09700	696.53	905.49	0.00	0.00000	0.000	1	0.00	0.00	126.99	-125.60	-122.68	128.52
16	15	0.001000	0.038000	0.00000	780.80	1015.04	0.00	0.97100	0.000	1	0.00	0.00	300.37	85.88	-299.51	-52.99
15	17	0.019400	0.031100	0.00000	831.64	1081.13	0.00	0.95610	0.000	1	0.00	0.00	241.78	-80.70	-231.00	97.98
15	37	0.065000	0.248000	0.12100	146.69	190.70	0.00	0.00000	0.000	1	0.00	0.00	22.00	-6.18	-21.70	-5.46
15	89	0.099000	0.248000	0.03500	85.59	111.26	0.00	0.00000	0.000	1	0.00	0.00	17.59	-7.53	-17.28	4.59
15	90	0.096000	0.363000	0.04800	85.35	110.95	0.00	0.00000	0.000	1	0.00	0.00	14.12	-4.12	-13.93	-0.29
16	42	0.002000	0.022000	1.28000	808.78	1051.41	0.00	0.00000	0.000	1	0.00	0.00	430.60	-157.66	-426.96	59.64
7017	17	0.000000	0.016540	0.00000	598.22	777.69	0.00	0.94200	0.000	1	0.00	0.00	329.99	348.63	-329.99	-317.97
19	21	0.002000	0.018000	0.03600	258.39	335.91	0.00	0.00000	0.000	1	0.00	0.00	-47.96	40.17	48.04	-42.85
19	87	0.013000	0.080000	0.15100	376.94	490.02	0.00	0.00000	0.000	1	0.00	0.00	186.45	-34.77	-181.66	49.58
21	20	0.000000	0.014000	0.00000	733.93	954.10	0.00	0.95200	0.000	1	0.00	0.00	521.40	189.03	-521.40	-147.95
20	22	0.016000	0.033000	0.01500	241.98	314.57	0.00	0.00000	0.000	1	0.00	0.00	-15.18	20.85	15.29	-22.11
20	27	0.069000	0.186000	0.09800	323.54	420.61	0.00	0.00000	0.000	1	0.00	0.00	24.29	0.46	-23.86	-8.87
10002	20	0.000000	0.000110	0.00000	30.00	39.00	0.00	1.00000	0.000	1	0.00	0.00	-11.10	18.20	11.10	-18.20
21	24	0.004000	0.034000	0.28000	373.69	485.80	0.00	0.00000	0.000	1	0.00	0.00	-227.27	-66.11	229.57	58.14
22	23	0.052000	0.111000	0.05000	388.72	505.33	0.00	0.00000	0.000	1	0.00	0.00	-96.29	-0.89	101.16	6.03
24	23	0.000000	0.064000	0.00000	393.02	510.93	0.00	0.94300	0.000	1	0.00	0.00	63.65	28.17	-63.65	-25.44
23	25	0.019000	0.039000	0.01800	231.91	301.49	0.00	0.00000	0.000	1	0.00	0.00	126.50	12.10	-123.71	-8.31
7023	23	0.000000	0.023000	0.00000	255.74	332.46	0.00	1.00000	0.000	1	0.00	0.00	185.00	6.86	-185.00	0.28
24	319	0.007000	0.068000	0.13400	208.98	271.67	0.00	0.00000	0.000	1	0.00	0.00	116.78	-28.19	-115.80	24.00
7024	24	0.000000	0.028900	0.00000	640.17	832.22	0.00	1.00000	0.000	1	0.00	0.00	410.01	107.15	-410.01	-58.12
25	26	0.036000	0.071000	0.03400	143.60	186.68	0.00	0.00000	0.000	1	0.00	0.00	78.71	-3.68	-76.58	4.41
26	27	0.045000	0.120000	0.06500	82.26	106.94	0.00	0.00000	0.000	1	0.00	0.00	46.10	0.38	-45.14	-4.13
26	320	0.043000	0.130000	0.01400	30.00	39.00	0.00	0.00000	0.000	1	0.00	0.00	2.48	-13.78	-2.40	12.60
33	34	0.000000	0.063000	0.00000	0.00	0.00	0.00	1.00000	0.000	1	0.00	0.00	-120.95	-23.23	120.95	32.31
33	38	0.002500	0.012000	0.01300	164.63	214.01	0.00	0.00000	0.000	1	0.00	0.00	86.67	17.21	-86.48	-17.68
33	40	0.006000	0.029000	0.02000	81.79	106.32	0.00	0.00000	0.000	1	0.00	0.00	46.58	0.39	-46.46	-1.89
33	41	0.007000	0.043000	0.02600	134.83	175.28	0.00	0.00000	0.000	1	0.00	0.00	-67.29	-0.39	67.59	-0.51
34	42	0.001000	0.008000	0.04200	202.68	263.49	0.00	0.00000	0.000	1	0.00	0.00	-120.98	-32.40	121.12	28.96
36	35	0.000000	0.047000	0.00000	341.56	444.03	0.00	1.01000	0.000	1	0.00	0.00	113.18	30.31	-113.18	-23.89
35	72	0.012000	0.060000	0.00800	133.07	173.00	0.00	0.00000	0.000	1	0.00	0.00	49.30	-17.78	-48.97	18.67
35	76	0.006000	0.014000	0.00200	185.71	241.42	0.00	0.00000	0.000	1	0.00	0.00	112.08	48.89	-111.16	-46.95
35	77	0.010000	0.029000	0.00300	77.27	100.46	0.00	0.00000	0.000	1	0.00	0.00	-48.22	-7.27	48.46	7.68
36	88	0.004000	0.027000	0.04300	357.03	464.15	0.00	0.00000	0.000	1	0.00	0.00	-113.18	-30.28	113.71	29.40
37	38	0.008000	0.047000	0.00800	145.12	188.66	0.00	0.00000	0.000	1	0.00	0.00	51.80	-10.30	-51.59	10.73
37	40	0.022000	0.064000	0.00700	73.35	95.35	0.00	0.00000	0.000	1	0.00	0.00	39.23	-16.27	-38.85	16.64
37	41	0.010000	0.036000	0.02000	200.13	260.17	0.00	0.00000	0.000	1	0.00	0.00	-41.72	-16.20	41.91	14.78
37	49	0.017000	0.081000	0.04800	359.55	467.41	0.00	0.00000	0.000	1	0.00	0.00	-185.67	16.08	191.36	5.86
37	89	0.102000	0.254000	0.03300	57.65	74.94	0.00	0.00000	0.000	1	0.00	0.00	-3.44	-4.75	3.46	1.33
37	90	0.047000	0.127000	0.01600	96.75	125.77	0.00	0.00000	0.000	1	0.00	0.00	-3.14	-5.12	3.15	3.48
37	9001	0.000060	0.000460	0.00000	113.19	147.15	75.00	1.00367	0.000	1	0.00	0.00	79.64	9.06	-79.64	-9.03
38	41	0.008000	0.037000	0.02000	209.19	271.95	0.00	0.00000	0.000	1	0.00	0.00	-104.96	-0.51	105.81	2.31
38	43	0.032000	0.087000	0.04000	141.56	184.03	0.00	0.00000	0.000	1	0.00	0.00	88.03	-10.50	-85.63	12.92
39	42	0.000600	0.006400	0.40400	809.05	1051.77	0.00	0.00000	0.000	1	0.00	0.00	499.98	77.04	-498.57	-106.64
7039	39	0.000000	0.031590	0.00000	690.67	897.86	0.00	0.96500	0.000	1	0.00	0.00	500.00	149.77	-500.00	-77.06
40	48	0.026000	0.154000	0.02200	73.02	94.92	0.00	0.00000	0.000	1	0.00	0.00	39.30	6.26	-38.91	-6.16
41	42	0.000000	0.029000	0.00000	0.00	0.00	0.00	1.00000	0.000	1	0.00	0.00	-194.88	-51.22	194.88	62.32
41	49	0.065000	0.191000	0.02000	134.34	174.64	0.00	0.00000	0.000	1	0.00	0.00	-67.68	17.38	70.69	-10.69
41	51	0.031000	0.089000	0.03600	172.48	224.22	0.00	0.00000	0.000	1	0.00	0.00	-38.75	17.26	39.30	-19.50
42	46	0.002000	0.014000	0.80600	1176.14	1528.99	0.00	0.00000	0.000	1	0.00	0.00	609.62	-44.12	-602.82	4.19
43	44	0.026000	0.072000	0.03500	131.89	171.46	0.00	0.00000	0.000	1	0.00	0.00	13.46	-20.79	-13.32	17.61
43	48	0.095000	0.262000	0.03200	30.00	39.00	0.00	0.00000	0.000	1	0.00	0.00	-5.61	0.85	5.64	-3.98
43	53	0.013000	0.039000	0.01600	71.18	92.53	0.00	0.00000	0.000	1	0.00	0.00	38.77	-2.00	-38.58	0.98
45	44	0.000000	0.020000	0.00000	367.04	477.16	0.00	1.00800	0.000	1	0.00	0.00	240.23	33.38	-240.23	-22.07
44	47	0.027000	0.084000	0.03900	218.06	283.47	0.00	0.00000	0.000	1	0.00	0.00	116.19	-2.24	-112.64	9.36
44	54	0.028000	0.084000	0.03700	102.49	133.24	0.00	0.00000	0.000	1	0.00	0.00	-20.63	11.54	20.80	-14.83
7044	44	0.000000	0.181810	0.00000	144.25	187.52	0.00	0.94200	0.000	1	0.00	0.00	37.00	38.25	-37.00	-33.81
45	46	0.000000	0.021000	0.00000	640.72	832.94	0.00	1.00000	0.000	1	0.00	0.00	-284.22	-39.47	284.22	55.83
45	60	0.007000	0.041000	0.31200	336.41	437.34	0.00	0.00000	0.000	1	0.00	0.00	-197.83	18.81	200.51	-36.18
45	74	0.009000	0.054000	0.41100	731.95	951.54	0.00	0.00000	0.000	1	0.00	0.00	241.81	-12.75	-236.82	0.00
46	81	0.005000	0.042000	0.69000	579.94	753.93	0.00	0.00000	0.000	1	0.00	0.00	318.59	-60.00	-313.85	25.38
47	73	0.052000	0.145000	0.07300	105.31	136.90	0.00	0.00000	0.000	1	0.00	0.00	25.86	-18.25	-25.39	12.36
47	113	0.043000	0.118000	0.01300	43.78	56.91	0.00	0.00000	0.000	1	0.00	0.00	28.79	-2.91	-28.42	2.66
48	107	0.025000	0.062000	0.00700	72.96	94.85	0.00	0.00000	0.000	1	0.00	0.00	-7.73	-8.86	7.77	8.23
49	51	0.031000	0.094000	0.04300	174.26	226.54	0.00	0.00000	0.000	1	0.00	0.00	104.43	-7.71	-101.34	12.45
7049	49	0.000000	0.012400	0.00000	596.01	774.81	0.00	1.00000	0.000	1	0.00	0.00	458.47	37.18	-458.47	-13.41
51	52	0.037000	0.109000	0.04900	114.87	149.33	0.00	0.00000	0.000	1	0.00	0.00	67.05	2.05	-65.46	-2.40
52	55	0.027000	0.080000	0.03600	77.25	100.43	0.00	0.00000	0.000	1	0.00	0.00	4.46	-25.60	-4.30	22.41
53	54	0.025000	0.073000	0.03500	91.85	119.40	0.00	0.00000	0.000	1	0.00	0.00	-30.42	-3.99	30.66	1.14
54	55	0.035000	0.103000	0.04700	119.98	155.97	0.00	0.00000	0.000	1	0.00	0.00	-61.45	12.70	62.83	-13.48
55	57	0.065000	0.169000	0.08200	143.84	186.99	0.00	0.00000	0.000	1	0.00	0.00	-35.53	0.39	36.33	-6.92
7055	55	0.000000	0.196070	0.00000	166.01	215.81	0.00	0.94200	0.000	1	0.00	0.00	45.00	23.87	-45.00	-19.32
57	58	0.046000	0.080000	0.03600	102.18	132.83	0.00	0.00000	0.000	1	0.00	0.00	-4.03	55.75	5.47	-56.95
57	63	0.159000	0.537000	0.07100	64.54	83.90	0.00	0.00000	0.000	1	0.00	0.00	34.70	3.43	-32.83	-4.17
7057	57	0.000000	0.053470	0.00000	243.01	315.92	0.00	0.95000	0.000	1	0.00	0.00	165.00	88.48	-165.00	-72.25
58	59	0.009000	0.026000	0.00500	99.40	129.22	0.00	0.00000	0.000	1	0.00	0.00	-19.47	55.94	19.79	-55.49
59	61	0.002000	0.013000	0.01500	372.08	483.71	0.00	0.00000	0.000	1	0.00	0.00	-237.79	-50.48	239.02	57.04
60	62	0.009000	0.065000	0.48500	348.49	453.04	0.00	0.00000	0.000	1	0.00	0.00	-200.50	36.20	204.24	-60.10
62	61	0.000000	0.059000	0.00000	162.61	211.39	0.00	0.97500	0.000	1	0.00	0.00	66.02	94.80	-66.02	-87.57
7061	61	0.000000	0.023800	0.00000	615.02	799.53	0.00	1.00000	0.000	1	0.00	0.00	400.00	119.83	-400.00	-79.50
62	64	0.016000	0.105000	0.20300	343.83	446.98	0.00	0.00000	0.000	1	0.00	0.00	195.55	45.72	-189.15	-23.37
62	144	0.001000	0.007000	0.01300	295.77	384.51	0.00	0.00000	0.000	1	0.00	0.00	-65.81	11.79	65.86	-12.83
7062	62	0.000000	0.032140	0.00000	544.43	707.76	0.00	0.95000	0.000	1	0.00	0.00	399.99	144.58	-399.99	-92.27
63	64	0.000000	0.038000	0.00000	281.67	366.17	0.00	1.01700	0.000	1	0.00	0.00	-189.15	-8.05	189.15	23.39
63	526	0.026500	0.172000	0.02600	249.29	324.08	0.00	0.00000	0.000	1	0.00	0.00	151.98	6.11	-145.30	34.90
10003	63	0.000000	0.000110	0.00000	41.25	53.63	0.00	1.00000	0.000	1	0.00	0.00	0.02	26.14	-0.02	-26.13
69	79	0.051000	0.157000	0.02300	82.14	106.78	0.00	0.00000	0.000	1	0.00	0.00	-11.72	7.84	11.83	-9.81
201	69	0.000000	0.098000	0.00000	55.72	72.44	0.00	1.03000	0.000	1	0.00	0.00	-34.02	12.67	34.02	-11.43
69	211	0.051000	0.232000	0.02800	40.70	52.91	0.00	0.00000	0.000	1	0.00	0.00	-22.30	3.58	22.56	-5.22
70	71	0.032000	0.100000	0.06200	168.96	219.64	0.00	0.00000	0.000	1	0.00	0.00	-84.33	2.04	86.52	-1.83
70	528	0.020000	0.123400	0.02800	60.27	78.36	0.00	0.00000	0.000	1	0.00	0.00	28.33	-22.03	-28.10	20.50
71	72	0.036000	0.131000	0.06800	285.83	371.58	0.00	0.00000	0.000	1	0.00	0.00	-26.92	46.07	27.97	-49.33
71	73	0.034000	0.099000	0.04700	185.84	241.60	0.00	0.00000	0.000	1	0.00	0.00	-59.60	73.50	62.50	-69.97
7071	71	0.000000	0.068960	0.00000	178.95	232.63	0.00	0.95650	0.000	1	0.00	0.00	116.00	-0.01	-116.00	8.53
72	77	0.018000	0.087000	0.01100	95.99	124.78	0.00	0.00000	0.000	1	0.00	0.00	-50.06	8.75	50.53	-7.56
72	531	0.025600	0.193000	0.00000	30.00	39.00	0.00	0.00000	0.000	1	0.00	0.00	14.05	2.90	-14.00	-2.50
73	74	0.000000	0.024400	0.00000	333.75	433.88	0.00	1.00000	0.000	1	0.00	0.00	-266.18	-43.31	266.18	61.16
73	76	0.021000	0.057000	0.03000	190.07	247.09	0.00	0.00000	0.000	1	0.00	0.00	29.10	24.97	-28.77	-27.00
73	79	0.018000	0.052000	0.01800	313.02	406.93	0.00	0.00000	0.000	1	0.00	0.00	-24.03	4.94	24.14	-6.41
74	88	0.004000	0.027000	0.05000	339.61	441.49	0.00	0.00000	0.000	1	0.00	0.00	-80.59	-45.74	80.92	42.77
74	562	0.028600	0.201300	0.37900	106.91	138.98	0.00	0.00000	0.000	1	0.00	0.00	51.24	-15.39	-50.50	-17.40
76	77	0.016000	0.043000	0.00400	122.13	158.77	0.00	0.00000	0.000	1	0.00	0.00	-68.05	-21.03	68.90	22.92
10004	76	0.000000	0.000110	0.00000	44.12	57.36	0.00	1.00000	0.000	1	0.00	0.00	0.01	8.87	-0.01	-8.87
77	78	0.001000	0.006000	0.00700	495.03	643.54	0.00	0.00000	0.000	1	0.00	0.00	-261.21	-44.41	261.92	47.95
77	80	0.014000	0.070000	0.03800	81.55	106.01	0.00	0.00000	0.000	1	0.00	0.00	-0.00	-2.98	0.00	-0.79
77	552	0.089100	0.267600	0.02900	30.00	39.00	0.00	0.00000	0.000	1	0.00	0.00	-10.99	-3.99	11.10	1.40
77	609	0.078200	0.212700	0.02200	57.20	74.36	0.00	0.00000	0.000	1	0.00	0.00	30.33	0.44	-29.60	-0.60
78	79	0.006000	0.022000	0.01100	409.58	532.46	0.00	0.00000	0.000	1	0.00	0.00	76.07	-4.70	-75.72	4.87
78	84	0.000000	0.036000	0.00000	694.72	903.14	0.00	0.00000	0.000	1	0.00	0.00	-338.00	-43.32	338.00	84.94
79	211	0.099000	0.375000	0.05100	30.00	39.00	0.00	0.00000	0.000	1	0.00	0.00	-8.25	-2.65	8.32	-2.23
80	211	0.022000	0.107000	0.05800	148.68	193.28	0.00	0.00000	0.000	1	0.00	0.00	-28.01	-6.22	28.18	1.25
81	88	0.000000	0.020000	0.00000	287.48	373.72	0.00	1.00000	0.000	1	0.00	0.00	194.63	80.44	-194.63	-72.23
81	194	0.003500	0.033000	0.53000	357.00	464.10	0.00	0.00000	0.000	1	0.00	0.00	13.35	-68.70	-13.29	11.28
81	195	0.003500	0.033000	0.53000	458.48	596.02	0.00	0.00000	0.000	1	0.00	0.00	105.86	-37.12	-105.50	-16.70
10005	84	0.000000	0.000110	0.00000	592.82	770.66	0.00	1.00000	0.000	1	0.00	0.00	375.12	102.33	-375.12	-102.17
85	86	0.008000	0.064000	0.12800	150.49	195.64	0.00	0.00000	0.000	1	0.00	0.00	-93.28	2.90	94.00	-9.65
85	99	0.000000	0.048000	0.00000	122.33	159.02	0.00	1.00000	0.000	1	0.00	0.00	93.28	-2.90	-93.28	7.19
86	87	0.012000	0.093000	0.18300	195.01	253.51	0.00	0.00000	0.000	1	0.00	0.00	-117.79	12.26	119.54	-16.65
86	102	0.000000	0.048000	0.00000	121.80	158.34	0.00	1.00000	0.000	1	0.00	0.00	38.65	-20.52	-38.65	21.46
86	323	0.006000	0.048000	0.09200	51.80	67.34	0.00	0.00000	0.000	1	0.00	0.00	-14.85	17.93	14.90	-26.52
87	94	0.000000	0.046000	0.00000	211.79	275.33	0.00	1.01500	0.000	1	0.00	0.00	62.12	-32.91	-62.12	35.29
89	91	0.047000	0.119000	0.01400	126.88	164.95	0.00	0.00000	0.000	1	0.00	0.00	-30.39	-5.92	30.81	5.46
90	92	0.032000	0.174000	0.02400	108.02	140.43	0.00	0.00000	0.000	1	0.00	0.00	-55.22	-3.19	56.14	5.62
91	94	0.100000	0.253000	0.03100	91.27	118.65	0.00	0.00000	0.000	1	0.00	0.00	7.68	19.91	-7.21	-21.94
91	97	0.022000	0.077000	0.03900	167.85	218.20	0.00	0.00000	0.000	1	0.00	0.00	99.11	18.75	-97.07	-15.79
10006	91	0.000000	0.000110	0.00000	227.55	295.81	0.00	1.00000	0.000	1	0.00	0.00	154.56	47.69	-154.56	-47.66
92	103	0.019000	0.144000	0.01700	139.00	180.70	0.00	0.00000	0.000	1	0.00	0.00	77.83	9.53	-76.77	-3.34
92	105	0.017000	0.092000	0.01200	218.68	284.28	0.00	0.00000	0.000	1	0.00	0.00	140.23	15.01	-137.17	0.25
10007	92	0.000000	0.000110	0.00000	455.27	591.86	0.00	1.00000	0.000	1	0.00	0.00	291.51	28.47	-291.51	-28.38
94	97	0.278000	0.427000	0.04300	58.28	75.77	0.00	0.00000	0.000	1	0.00	0.00	9.02	-13.37	-8.43	9.92
97	100	0.022000	0.053000	0.00700	68.12	88.55	0.00	0.00000	0.000	1	0.00	0.00	42.99	5.71	-42.59	-5.47
97	102	0.038000	0.092000	0.01200	73.49	95.54	0.00	0.00000	0.000	1	0.00	0.00	39.74	3.01	-39.16	-2.82
97	103	0.048000	0.122000	0.01500	74.42	96.75	0.00	0.00000	0.000	1	0.00	0.00	-17.12	-2.83	17.26	1.61
98	100	0.024000	0.064000	0.00700	62.32	81.01	0.00	0.00000	0.000	1	0.00	0.00	-6.87	-7.08	6.89	6.43
98	102	0.034000	0.121000	0.01500	30.00	39.00	0.00	0.00000	0.000	1	0.00	0.00	8.17	-3.55	-8.15	2.14
10008	98	0.000000	0.000110	0.00000	100.99	131.29	0.00	1.00000	0.000	1	0.00	0.00	68.22	-9.15	-68.22	9.16
99	107	0.053000	0.135000	0.01700	82.88	107.74	0.00	0.00000	0.000	1	0.00	0.00	-50.75	5.82	52.17	-3.91
99	108	0.002000	0.004000	0.00200	118.84	154.49	0.00	0.00000	0.000	1	0.00	0.00	-10.45	-7.24	10.46	7.05
99	109	0.045000	0.354000	0.04400	55.01	71.52	0.00	0.00000	0.000	1	0.00	0.00	28.24	-1.68	-27.88	0.30
99	110	0.050000	0.174000	0.02200	77.58	100.86	0.00	0.00000	0.000	1	0.00	0.00	42.73	-4.10	-41.80	5.24
100	102	0.016000	0.038000	0.00400	70.35	91.46	0.00	0.00000	0.000	1	0.00	0.00	35.69	-0.98	-35.49	1.06
102	104	0.043000	0.064000	0.02700	91.09	118.41	0.00	0.00000	0.000	1	0.00	0.00	43.64	-21.84	-42.64	20.64
103	105	0.019000	0.062000	0.00800	160.84	209.09	0.00	0.00000	0.000	1	0.00	0.00	27.51	1.71	-27.38	-2.11
104	108	0.076000	0.130000	0.04400	67.92	88.29	0.00	0.00000	0.000	1	0.00	0.00	31.63	-15.27	-30.73	12.47
104	322	0.044000	0.124000	0.01500	30.00	39.00	0.00	0.00000	0.000	1	0.00	0.00	2.41	-5.36	-2.40	3.90
105	107	0.012000	0.088000	0.01100	131.08	170.40	0.00	0.00000	0.000	1	0.00	0.00	65.03	6.80	-64.54	-4.33
105	110	0.157000	0.400000	0.04700	76.81	99.86	0.00	0.00000	0.000	1	0.00	0.00	49.92	-4.93	-46.17	9.78
108	324	0.074000	0.208000	0.02600	48.88	63.54	0.00	0.00000	0.000	1	0.00	0.00	25.18	-2.36	-24.70	1.20
10009	108	0.000000	0.000110	0.00000	151.49	196.94	0.00	1.00000	0.000	1	0.00	0.00	118.20	17.90	-118.20	-17.88
109	110	0.070000	0.184000	0.02100	30.00	39.00	0.00	0.00000	0.000	1	0.00	0.00	-10.36	5.17	10.46	-6.90
109	113	0.100000	0.274000	0.03100	30.00	39.00	0.00	0.00000	0.000	1	0.00	0.00	-2.21	-0.29	2.22	-2.66
109	114	0.109000	0.393000	0.03600	30.00	39.00	0.00	0.00000	0.000	1	0.00	0.00	9.75	-5.16	-9.63	2.13
110	112	0.142000	0.404000	0.05000	30.00	39.00	0.00	0.00000	0.000	1	0.00	0.00	14.50	-8.13	-14.13	4.37
112	114	0.017000	0.042000	0.00600	30.00	39.00	0.00	0.00000	0.000	1	0.00	0.00	-5.46	-4.36	5.47	3.80
114	207	0.000000	0.149000	0.00000	30.00	39.00	0.00	0.96700	0.000	1	0.00	0.00	-14.05	-5.94	14.05	6.27
121	115	0.000000	0.028000	0.00000	634.15	824.39	0.00	1.00000	0.000	1	0.00	0.00	184.46	-29.65	-184.46	40.64
115	122	0.003600	0.019900	0.00400	637.85	829.20	0.00	0.00000	0.000	1	0.00	0.00	184.46	-40.65	-183.05	48.09
116	120	0.002000	0.104900	0.00100	542.52	705.27	0.00	0.00000	0.000	1	0.00	0.00	-309.41	45.84	311.22	48.97
116	124	0.005200	0.017400	0.00000	458.64	596.23	0.00	1.01000	0.000	1	0.00	0.00	309.42	-45.83	-304.62	61.89
117	118	0.000100	0.001800	0.01700	1895.76	2464.49	0.00	0.00000	0.000	1	0.00	0.00	-883.41	498.87	884.51	-480.82
159	117	0.000000	0.016000	0.00000	1114.18	1448.44	0.00	0.96860	0.000	1	0.00	0.00	-883.35	159.63	883.35	-27.25
118	119	0.000000	0.027100	0.00000	1894.40	2462.73	0.00	0.00000	0.000	1	0.00	0.00	-911.02	-168.10	911.02	418.68
118	121	0.002200	0.291500	0.00000	96.42	125.35	0.00	0.00000	0.000	1	0.00	0.00	49.57	10.35	-49.50	-2.29
118	1201	0.000000	0.616300	0.00000	76.05	98.86	0.00	0.00000	0.000	1	0.00	0.00	-37.09	-11.05	37.09	20.99
119	120	0.000000	0.033900	0.00000	320.70	416.91	0.00	0.00000	0.000	1	0.00	0.00	148.31	-11.22	-148.31	18.12
119	121	0.000000	0.058200	0.00000	1255.96	1632.75	0.00	0.00000	0.000	1	0.00	0.00	669.95	317.21	-669.95	-23.06
119	1190	0.000000	0.023000	0.00000	0.00	0.00	0.00	1.00000	0.000	1	0.00	0.00	99.04	35.86	-99.04	-33.51
10010	119	0.000000	0.000110	0.00000	2815.95	3660.74	0.00	1.00000	0.000	1	0.00	0.00	1930.74	796.89	-1930.74	-792.48
120	1200	0.000000	0.023000	0.00000	0.00	0.00	0.00	1.00000	0.000	1	0.00	0.00	-100.00	36.53	100.00	-34.16
120	1201	0.000000	-0.069700	0.00000	73.75	95.88	0.00	0.00000	0.000	1	0.00	0.00	37.09	19.87	-37.09	-21.00
...
];

%% dc line data
mpc.dcline = [
119 120 1   100.29  100.00  -34.01  -40.85  1.04252 1.04010 -100.29 100.0   -34.01  -34.01  -40.85  -40.85  0   0   0   0   0   0   0   0
];

%% bus names
mpc.bus_name = {
'1           ';
'2           ';
'3           ';
'4           ';
'5           ';
'6           ';
'7           ';
'8           ';
'9           ';
'10          ';
'11          ';
'12          ';
'13          ';
'14          ';
'15          ';
'16          ';
'17          ';
'19          ';
'20          ';
'21          ';
'22          ';
'23          ';
'24          ';
'25          ';
'26          ';
'27          ';
'33          ';
'34          ';
'35          ';
'36          ';
'37          ';
'38          ';
'39          ';
'40          ';
'41          ';
'42          ';
'43          ';
'44          ';
'45          ';
'46          ';
'47          ';
'48          ';
'49          ';
'51          ';
'52          ';
'53          ';
'54          ';
'55          ';
'57          ';
'58          ';
'59          ';
'60          ';
'61          ';
'62          ';
'63          ';
'64          ';
'69          ';
'70          ';
'71          ';
'72          ';
'73          ';
'74          ';
'76          ';
'77          ';
'78          ';
'79          ';
'80          ';
'81          ';
'84          ';
'85          ';
'86          ';
'87          ';
'88          ';
'89          ';
'90          ';
'91          ';
'92          ';
'94          ';
'97          ';
'98          ';
'99          ';
'100         ';
'102         ';
'103         ';
'104         ';
'105         ';
'107         ';
'108         ';
'109         ';
'110         ';
'112         ';
'113         ';
'114         ';
'115         ';
'116         ';
'117         ';
'118         ';
'119         ';
'120         ';
'121         ';
'122         ';
'123         ';
'124         ';
'125         ';
'126         ';
'127         ';
'128         ';
'129         ';
'130         ';
'131         ';
'132         ';
'133         ';
'134         ';
'135         ';
'136         ';
'137         ';
'138         ';
'139         ';
'140         ';
'141         ';
'142         ';
'143         ';
'144         ';
'145         ';
'146         ';
'147         ';
'148         ';
'149         ';
'150         ';
'151         ';
'152         ';
'153         ';
'154         ';
'155         ';
'156         ';
'157         ';
'158         ';
'159         ';
'160         ';
'161         ';
'162         ';
'163         ';
'164         ';
'165         ';
'166         ';
'167         ';
'168         ';
'169         ';
'170         ';
'171         ';
'172         ';
'173         ';
'174         ';
'175         ';
'176         ';
'177         ';
'178         ';
'179         ';
'180         ';
'181         ';
'182         ';
'183         ';
'184         ';
'185         ';
'186         ';
'187         ';
'188         ';
'189         ';
'190         ';
'191         ';
'192         ';
'192         ';
'194         ';
'195         ';
'196         ';
'197         ';
'198         ';
'199         ';
'200         ';
'201         ';
'202         ';
'203         ';
'204         ';
'205         ';
'206         ';
'207         ';
'208         ';
'209         ';
'210         ';
'211         ';
'212         ';
'213         ';
'214         ';
'215         ';
'216         ';
'217         ';
'218         ';
'219         ';
'220         ';
'221         ';
...
};

%% Generator Unit Types
mpc.gentype = {
'UN';
'UN';
'UN';
'UN';
'UN';
'UN';
'UN';
'UN';
'UN';
'UN';
'UN';
'UN';
'UN';
'UN';
'UN';
'UN';
'UN';
'UN';
'UN';
'UN';
'UN';
'UN';
'UN';
'UN';
'UN';
'UN';
'UN';
'UN';
'UN';
'UN';
'UN';
'UN';
'UN';
'UN';
'UN';
'UN';
'UN';
'UN';
'UN';
'UN';
'UN';
'UN';
'UN';
'UN';
'UN';
'UN';
'UN';
'UN';
'UN';
'UN';
'UN';
'UN';
'UN';
'UN';
'UN';
'UN';
'UN';
'UN';
'UN';
'UN';
'UN';
'UN';
'UN';
'UN';
'UN';
'UN';
'UN';
'UN';
'UN';
};

%% Generator Fuel Types
mpc.genfuel = {
'unknown';
'unknown';
'unknown';
'unknown';
'unknown';
'unknown';
'unknown';
'unknown';
'unknown';
'unknown';
'unknown';
'unknown';
'unknown';
'unknown';
'unknown';
'unknown';
'unknown';
'unknown';
'unknown';
'unknown';
'unknown';
'unknown';
'unknown';
'unknown';
'unknown';
'unknown';
'unknown';
'unknown';
'unknown';
'unknown';
'unknown';
'unknown';
'unknown';
'unknown';
'unknown';
'unknown';
'unknown';
'unknown';
'unknown';
'unknown';
'unknown';
'unknown';
'unknown';
'unknown';
'unknown';
'unknown';
'unknown';
'unknown';
'unknown';
'unknown';
'unknown';
'unknown';
'unknown';
'unknown';
'unknown';
'unknown';
'unknown';
'unknown';
'unknown';
'unknown';
'unknown';
'unknown';
'unknown';
'unknown';
'unknown';
'unknown';
'unknown';
'unknown';
'unknown';
};

%column_names%  prob
mpc.branch_prob = [
0.1;
0.12;
0.03;
0.17;
0.17;
0.26;
0.25;
0.2;
0.17;
0.47;
0.26;
0.45;
0.13;
0.53;
0.53;
0.51;
0.35;
0.3;
0.02;
0.23;
0.36;
0.14;
0.44;
0.47;
0.14;
0.4;
0.11;
0.24;
0.1;
0.51;
0.51;
0.27;
0.35;
0.23;
0.45;
0.35;
0.33;
0.08;
0.22;
0.28;
0.24;
0.18;
0.21;
0.52;
0.36;
0.06;
0.41;
0.34;
0.09;
0.47;
0.45;
0.25;
0.11;
0.3;
0.16;
0.09;
0.07;
0.45;
0.1;
0.1;
0.4;
0.51;
0.33;
0.37;
0.17;
0.23;
0.53;
0.15;
0.53;
0.54;
0.18;
0.42;
0.18;
0.27;
0.31;
0.16;
0.46;
0.24;
0.51;
0.46;
0.11;
0.1;
0.39;
0.3;
0.54;
0.41;
0.41;
0.44;
0.24;
0.3;
0.08;
0.33;
0.51;
0.35;
0.29;
0.33;
0.29;
0.23;
0.21;
0.52;
0.5;
0.08;
0.04;
0.13;
0.53;
0.45;
0.26;
0.2;
0.34;
0.27;
0.12;
0.08;
0.3;
0.11;
0.24;
0.12;
0.25;
0.04;
0.48;
0.08;
0.23;
0.52;
0.24;
0.42;
0.12;
0.53;
0.04;
0.19;
0.14;
0.44;
0.37;
0.42;
0.45;
0.22;
0.31;
0.44;
0.15;
0.13;
0.22;
0.1;
0.47;
0.17;
0.04;
0.33;
0.42;
0.07;
0.35;
0.51;
0.53;
0.49;
0.1;
0.37;
0.33;
0.37;
0.08;
0.15;
0.39;
0.21;
0.04;
0.21;
0.44;
0.37;
0.18;
0.1;
0.08;
0.32;
0.1;
0.18;
0.1;
0.25;
0.36;
0.45;
0.02;
0.33;
0.44;
0.15;
0.49;
0.16;
0.51;
0.53;
0.08;
0.07;
0.5;
0.42;
0.26;
0.12;
0.48;
0.38;
0.36;
0.38;
0.24;
0.17;
0.37;
0.53;
0.49;
0.17;
0.13;
0.09;
0.03;
0.14;
...
];

